LAMMPS (23 Jun 2022 - Update 1)
## GraphAne

dimension 3
units metal
processors * * 1
boundary p p p

neighbor 0.3 bin
neigh_modify every 1 delay 0 check yes

#define variables

variable T equal 300.0
variable V equal lx*ly*1.44  # 0.144 nm = lz
variable dt equal 0.0001

#define lattice

atom_style atomic
read_data graphane_10nmX10nm.data
Reading data file ...
  orthogonal box = (0 0 -40) to (100.8 101.845 40)
  reading atoms ...
  8064 atoms

#define interatomic potentials

pair_style			airebo 3 1 0
pair_coeff 			* * CH.airebo C H
Reading airebo potential file CH.airebo with DATE: 2011-10-25

group hydro type 2
4032 atoms in group hydro
group carbon type 1
4032 atoms in group carbon

compute 1 all stress/atom NULL
compute 2 all displace/atom
compute 3 carbon coord/atom cutoff 1.73 group all
compute 4 hydro coord/atom cutoff 1.3 group carbon
variable coords equal "c_3+c_4"

dump mini all custom 10 minimize.xyz id type x y z c_1[1] c_1[2] c_1[3] c_1[4] c_1[5] c_1[6] c_2[1] c_2[2] c_2[3] c_2[4] c_3 c_4
dump_modify mini sort id

#define thermo variable settings

timestep 0.0001
reset_timestep 0
thermo 10

compute eng all pe/atom
compute eatoms all reduce sum c_eng

variable lengthx equal "lx"
variable lengthy equal "ly"
variable ecoh equal "v_teng/v_natoms"
variable la equal "v_lengthx/23"
variable lb equal "v_lengthy/41"
variable natoms equal "count(all)"
variable teng equal "c_eatoms"
variable t equal step*0.0001
variable stp equal "step"

thermo_style custom step pe lx ly lz v_la v_lb press pxx pyy pzz c_eatoms

fix n all ave/time 1 1 1 v_t v_la v_lb v_teng v_ecoh file latticeinfo.txt

# ---------- Run Minimization ---------------------

fix bb all box/relax iso 0 vmax 0.001
min_style cg
minimize 1e-25 1e-25 200000 200000
  update every 1 steps, delay 0 steps, check yes
Step         PotEng           Lx             Ly             Lz            v_la           v_lb          Press           Pxx            Pyy            Pzz          c_eatoms
0   2436.9717      100.8          101.845        80             4.3826087      2.4840244      961521.25      1042407.3      1042319.9      799836.58      2436.9717
Averages over the last 109 of 217 rows, steps 1080 to 2156:
PotEng Lx Ly Lz v_la v_lb Press Pxx Pyy Pzz c_eatoms
-40204.2 107.269 108.381 85.1344 4.66388 2.64345 -142.127 -2731.31 -2732.36 5037.29 -40204.2
Loop time of 31.2137 on 32 procs for 2156 steps with 8064 atoms

Minimization stats:
  Stopping criterion = energy tolerance
  Energy initial, next-to-last, final =
  Force two-norm initial, final = 1478661.5 7.1696878e-06
  Force max component initial, final = 1478631.7 3.3707972e-06
  Final line search alpha, max atom move = 1 3.3707972e-06
  Iterations, force evaluations = 2156 2922

unfix bb
#initialize velocities

velocity all create $T 23121 mom yes rot yes dist gaussian units box
velocity all create 300 23121 mom yes rot yes dist gaussian units box

# ======= thermal equilibration =======

fix				NVE all nve
fix				ts all temp/rescale 1 $T $T $(100.0*dt) 1.0
fix				ts all temp/rescale 1 300 $T $(100.0*dt) 1.0
fix				ts all temp/rescale 1 300 300 $(100.0*dt) 1.0
fix				ts all temp/rescale 1 300 300 0.010000000000000000208 1.0
run				5000
Step         PotEng           Lx             Ly             Lz            v_la           v_lb          Press           Pxx            Pyy            Pzz          c_eatoms
2156  -40695.776      105.32781      106.41975      83.593498      4.5794699      2.5956036      356.42149      358.92576      357.63531      352.70339     -40695.776
Averages over the last 251 of 502 rows, steps 4660 to 7156:
PotEng Lx Ly Lz v_la v_lb Press Pxx Pyy Pzz c_eatoms
-40366.6 105.328 106.42 83.5935 4.57947 2.5956 779.852 1183.94 1148.12 7.49498 -40366.6
Loop time of 40.9683 on 32 procs for 5000 steps with 8064 atoms

unfix 		ts
unfix			NVE

fix 1 all nvt temp $T $T $(100.0*dt) drag 2.0
fix 1 all nvt temp 300 $T $(100.0*dt) drag 2.0
fix 1 all nvt temp 300 300 $(100.0*dt) drag 2.0
fix 1 all nvt temp 300 300 0.010000000000000000208 drag 2.0
run 5000
Step         PotEng           Lx             Ly             Lz            v_la           v_lb          Press           Pxx            Pyy            Pzz          c_eatoms
7156  -40357.323      105.32781      106.41975      83.593498      4.5794699      2.5956036      837.81015      1167.876       1170.7281      174.82627     -40357.323
Averages over the last 251 of 502 rows, steps 9660 to 12156:
PotEng Lx Ly Lz v_la v_lb Press Pxx Pyy Pzz c_eatoms
-40366 105.328 106.42 83.5935 4.57947 2.5956 665.617 1005.67 988.443 2.73474 -40366
Loop time of 40.7127 on 32 procs for 5000 steps with 8064 atoms

unfix 1

fix 1 all nve
run 5000
Step         PotEng           Lx             Ly             Lz            v_la           v_lb          Press           Pxx            Pyy            Pzz          c_eatoms
12156  -40370.097      105.32781      106.41975      83.593498      4.5794699      2.5956036      562.22458      913.74742      977.88876     -204.96245     -40370.097
Averages over the last 251 of 502 rows, steps 14660 to 17156:
PotEng Lx Ly Lz v_la v_lb Press Pxx Pyy Pzz c_eatoms
-40366.9 105.328 106.42 83.5935 4.57947 2.5956 540.674 770.167 850.593 1.26138 -40366.9
Loop time of 40.7117 on 32 procs for 5000 steps with 8064 atoms

unfix 1

Total energy (eV) = -40361.5421280653;
Number of atoms = 8064;
relaxed armchair length per unit cell = 4.5794699066887;
relaxed zigzag length per unit cell = 2.59560360793515;
Cohesive energy (eV) = -5.00515155357953;

print "All done!"
All done!

write_data post_relaxed.data
System init for write_data ...
